iidm/iidm-serde/src/test/resources/vl_busBranch.xml
<?xml version="1.0" encoding="UTF-8"?>
<iidm:network xmlns:iidm="http://www.powsybl.org/schema/iidm/1_14" xmlns:cp="http://www.powsybl.org/schema/iidm/ext/connectable_position/1_1" xmlns:bbsp="http://www.itesla_project.eu/schema/iidm/ext/busbarsectionposition/1_0" id="testCase11" caseDate="2022-07-26T13:56:23.057+02:00" forecastDistance="0" sourceFormat="test" minimumValidationLevel="STEADY_STATE_HYPOTHESIS">
    <iidm:substation id="subst" name="subst" country="FR">
        <iidm:voltageLevel id="vl1" name="vl1" nominalV="380.0" topologyKind="NODE_BREAKER">
            <iidm:busBreakerTopology>
                <iidm:bus id="vl1_0" name="vl1_0"/>
                <iidm:bus id="vl1_2" name="vl1_2"/>
            </iidm:busBreakerTopology>
            <iidm:generator id="gen1" name="gen1" energySource="OTHER" minP="0.0" maxP="20.0" voltageRegulatorOn="false" targetP="10.0" targetQ="10.0" node="6">
                <iidm:minMaxReactiveLimits minQ="-1.7976931348623157E308" maxQ="1.7976931348623157E308"/>
            </iidm:generator>
            <iidm:generator id="gen2" name="gen2" energySource="OTHER" minP="0.0" maxP="20.0" voltageRegulatorOn="false" targetP="10.0" targetQ="10.0" node="10">
                <iidm:minMaxReactiveLimits minQ="-1.7976931348623157E308" maxQ="1.7976931348623157E308"/>
            </iidm:generator>
            <iidm:load id="load1" name="load1" loadType="UNDEFINED" p0="10.0" q0="10.0" node="4"/>
            <iidm:load id="load2" name="load2" loadType="UNDEFINED" p0="10.0" q0="10.0" node="8"/>
        </iidm:voltageLevel>
        <iidm:voltageLevel id="vl2" name="vl2" nominalV="225.0" topologyKind="NODE_BREAKER">
            <iidm:nodeBreakerTopology>
                <iidm:busbarSection id="bbs5" name="bbs5" node="0"/>
                <iidm:busbarSection id="bbs6" name="bbs6" node="1"/>
                <iidm:switch id="dscpl1" name="dscpl1" fictitious="true" kind="DISCONNECTOR" retained="false" open="false" node1="0" node2="6"/>
                <iidm:switch id="ddcpl1" name="ddcpl1" fictitious="true" kind="BREAKER" retained="true" open="false" node1="6" node2="7"/>
                <iidm:switch id="dscpl2" name="dscpl2" fictitious="true" kind="DISCONNECTOR" retained="false" open="false" node1="7" node2="1"/>
                <iidm:switch id="dload3" name="dload3" fictitious="true" kind="DISCONNECTOR" retained="false" open="false" node1="0" node2="3"/>
                <iidm:switch id="bload3" name="bload3" fictitious="true" kind="BREAKER" retained="true" open="false" node1="2" node2="3"/>
                <iidm:switch id="dgen4" name="dgen4" fictitious="true" kind="DISCONNECTOR" retained="false" open="false" node1="1" node2="5"/>
                <iidm:switch id="bgen4" name="bgen4" fictitious="true" kind="BREAKER" retained="true" open="false" node1="4" node2="5"/>
                <iidm:switch id="dtrf21" name="dtrf21" fictitious="true" kind="DISCONNECTOR" retained="false" open="false" node1="0" node2="8"/>
                <iidm:switch id="btrf21" name="btrf21" fictitious="true" kind="BREAKER" retained="true" open="false" node1="8" node2="9"/>
                <iidm:switch id="dtrf22" name="dtrf22" fictitious="true" kind="DISCONNECTOR" retained="false" open="false" node1="1" node2="10"/>
                <iidm:switch id="btrf22" name="btrf22" fictitious="true" kind="BREAKER" retained="true" open="false" node1="10" node2="11"/>
                <iidm:switch id="dtrf23" name="dtrf23" fictitious="true" kind="DISCONNECTOR" retained="false" open="false" node1="1" node2="12"/>
                <iidm:switch id="btrf23" name="btrf23" fictitious="true" kind="BREAKER" retained="true" open="false" node1="12" node2="13"/>
                <iidm:switch id="dtrf24" name="dtrf24" fictitious="true" kind="DISCONNECTOR" retained="false" open="false" node1="0" node2="14"/>
                <iidm:switch id="btrf24" name="btrf24" fictitious="true" kind="BREAKER" retained="true" open="false" node1="14" node2="15"/>
                <iidm:switch id="dtrf26" name="dtrf26" fictitious="true" kind="DISCONNECTOR" retained="false" open="false" node1="1" node2="16"/>
                <iidm:switch id="btrf26" name="btrf26" fictitious="true" kind="BREAKER" retained="true" open="false" node1="16" node2="17"/>
                <iidm:switch id="dtrf27" name="dtrf27" fictitious="true" kind="DISCONNECTOR" retained="false" open="false" node1="0" node2="18"/>
                <iidm:switch id="btrf27" name="btrf27" fictitious="true" kind="BREAKER" retained="true" open="false" node1="18" node2="19"/>
                <iidm:switch id="dtrf28" name="dtrf28" fictitious="true" kind="DISCONNECTOR" retained="false" open="false" node1="1" node2="20"/>
                <iidm:switch id="btrf28" name="btrf28" fictitious="true" kind="BREAKER" retained="true" open="false" node1="20" node2="21"/>
            </iidm:nodeBreakerTopology>
            <iidm:generator id="gen4" name="gen4" energySource="OTHER" minP="0.0" maxP="20.0" voltageRegulatorOn="false" targetP="10.0" targetQ="10.0" node="4">
                <iidm:minMaxReactiveLimits minQ="-1.7976931348623157E308" maxQ="1.7976931348623157E308"/>
            </iidm:generator>
            <iidm:load id="load3" name="load3" loadType="UNDEFINED" p0="10.0" q0="10.0" node="2"/>
        </iidm:voltageLevel>
        <iidm:voltageLevel id="vl3" name="vl3" nominalV="50.0" topologyKind="NODE_BREAKER">
            <iidm:nodeBreakerTopology>
                <iidm:busbarSection id="bbs7" name="bbs7" node="0"/>
                <iidm:switch id="dload4" name="dload4" fictitious="true" kind="DISCONNECTOR" retained="false" open="false" node1="0" node2="2"/>
                <iidm:switch id="bload4" name="bload4" fictitious="true" kind="BREAKER" retained="true" open="false" node1="2" node2="1"/>
                <iidm:switch id="dtrf25" name="dtrf25" fictitious="true" kind="DISCONNECTOR" retained="false" open="false" node1="0" node2="3"/>
                <iidm:switch id="btrf25" name="btrf25" fictitious="true" kind="BREAKER" retained="true" open="false" node1="3" node2="4"/>
                <iidm:switch id="dtrf36" name="dtrf36" fictitious="true" kind="DISCONNECTOR" retained="false" open="false" node1="0" node2="5"/>
                <iidm:switch id="btrf36" name="btrf36" fictitious="true" kind="BREAKER" retained="true" open="false" node1="5" node2="6"/>
                <iidm:switch id="dtrf37" name="dtrf37" fictitious="true" kind="DISCONNECTOR" retained="false" open="false" node1="0" node2="7"/>
                <iidm:switch id="btrf37" name="btrf37" fictitious="true" kind="BREAKER" retained="true" open="false" node1="7" node2="8"/>
                <iidm:switch id="dtrf38" name="dtrf38" fictitious="true" kind="DISCONNECTOR" retained="false" open="false" node1="0" node2="9"/>
                <iidm:switch id="btrf38" name="btrf38" fictitious="true" kind="BREAKER" retained="true" open="false" node1="9" node2="10"/>
            </iidm:nodeBreakerTopology>
            <iidm:load id="load4" name="load4" loadType="UNDEFINED" p0="10.0" q0="10.0" node="1"/>
        </iidm:voltageLevel>
        <iidm:twoWindingsTransformer id="trf1" name="trf1" r="2.0" x="14.745" g="0.0" b="3.2E-5" ratedU1="400.0" ratedU2="225.0" voltageLevelId1="vl1" node1="19" voltageLevelId2="vl2" node2="9"/>
        <iidm:twoWindingsTransformer id="trf2" name="trf2" r="2.0" x="14.745" g="0.0" b="3.2E-5" ratedU1="400.0" ratedU2="225.0" voltageLevelId1="vl1" node1="21" voltageLevelId2="vl2" node2="11"/>
        <iidm:twoWindingsTransformer id="trf3" name="trf3" r="2.0" x="14.745" g="0.0" b="3.2E-5" ratedU1="400.0" ratedU2="225.0" voltageLevelId1="vl1" node1="23" voltageLevelId2="vl2" node2="13"/>
        <iidm:twoWindingsTransformer id="trf4" name="trf4" r="2.0" x="14.745" g="0.0" b="3.2E-5" ratedU1="400.0" ratedU2="225.0" voltageLevelId1="vl1" node1="25" voltageLevelId2="vl2" node2="15"/>
        <iidm:twoWindingsTransformer id="trf5" name="trf5" r="2.0" x="14.745" g="0.0" b="3.2E-5" ratedU1="400.0" ratedU2="225.0" voltageLevelId1="vl1" node1="27" voltageLevelId2="vl3" node2="4"/>
        <iidm:threeWindingsTransformer id="trf6" name="trf6" r1="0.5" x1="1.0" g1="0.1" b1="0.1" ratedU1="400.0" r2="0.5" x2="1.0" g2="0.0" b2="0.0" ratedU2="225.0" r3="0.5" x3="1.0" g3="0.0" b3="0.0" ratedU3="50.0" ratedU0="400.0" voltageLevelId1="vl1" node1="29" voltageLevelId2="vl2" node2="17" voltageLevelId3="vl3" node3="6"/>
        <iidm:threeWindingsTransformer id="trf7" name="trf7" r1="0.5" x1="1.0" g1="0.1" b1="0.1" ratedU1="400.0" r2="0.5" x2="1.0" g2="0.0" b2="0.0" ratedU2="225.0" r3="0.5" x3="1.0" g3="0.0" b3="0.0" ratedU3="50.0" ratedU0="400.0" voltageLevelId1="vl1" node1="31" voltageLevelId2="vl2" node2="19" voltageLevelId3="vl3" node3="8"/>
        <iidm:threeWindingsTransformer id="trf8" name="trf8" r1="0.5" x1="1.0" g1="0.1" b1="0.1" ratedU1="400.0" r2="0.5" x2="1.0" g2="0.0" b2="0.0" ratedU2="225.0" r3="0.5" x3="1.0" g3="0.0" b3="0.0" ratedU3="50.0" ratedU0="400.0" voltageLevelId1="vl1" node1="33" voltageLevelId2="vl2" node2="21" voltageLevelId3="vl3" node3="10"/>
    </iidm:substation>
    <iidm:substation id="subst2" name="subst2" country="FR">
        <iidm:voltageLevel id="vlSubst2" name="vlSubst2" nominalV="380.0" topologyKind="NODE_BREAKER">
            <iidm:nodeBreakerTopology>
                <iidm:busbarSection id="bbs1_2" name="bbs1_2" node="0"/>
                <iidm:switch id="dline21_2" name="dline21_2" fictitious="true" kind="DISCONNECTOR" retained="false" open="false" node1="0" node2="1"/>
                <iidm:switch id="bline21_2" name="bline21_2" fictitious="true" kind="BREAKER" retained="true" open="false" node1="1" node2="2"/>
            </iidm:nodeBreakerTopology>
        </iidm:voltageLevel>
    </iidm:substation>
    <iidm:line id="line1" name="line1" r="2.0" x="14.745" g1="1.0" b1="1.0" g2="1.0" b2="1.0" voltageLevelId1="vl1" node1="35" voltageLevelId2="vlSubst2" node2="2"/>
    <iidm:extension id="line1">
        <cp:position>
            <cp:feeder1 name="line1" order="70" direction="TOP"/>
            <cp:feeder2 name="line1" order="10" direction="TOP"/>
        </cp:position>
    </iidm:extension>
    <iidm:extension id="trf8">
        <cp:position>
            <cp:feeder1 name="trf81" order="90" direction="TOP"/>
            <cp:feeder2 name="trf82" order="60" direction="BOTTOM"/>
            <cp:feeder3 name="trf83" order="40" direction="TOP"/>
        </cp:position>
    </iidm:extension>
    <iidm:extension id="load3">
        <cp:position>
            <cp:feeder name="load3" order="0" direction="TOP"/>
        </cp:position>
    </iidm:extension>
    <iidm:extension id="load2">
        <cp:position>
            <cp:feeder name="load2" order="80" direction="TOP"/>
        </cp:position>
    </iidm:extension>
    <iidm:extension id="load4">
        <cp:position>
            <cp:feeder name="load4" order="0" direction="TOP"/>
        </cp:position>
    </iidm:extension>
    <iidm:extension id="load1">
        <cp:position>
            <cp:feeder name="load1" order="0" direction="TOP"/>
        </cp:position>
    </iidm:extension>
    <iidm:extension id="trf6">
        <cp:position>
            <cp:feeder1 name="trf61" order="50" direction="TOP"/>
            <cp:feeder2 name="trf62" order="50" direction="TOP"/>
            <cp:feeder3 name="trf63" order="20" direction="TOP"/>
        </cp:position>
    </iidm:extension>
    <iidm:extension id="trf7">
        <cp:position>
            <cp:feeder1 name="trf71" order="60" direction="BOTTOM"/>
            <cp:feeder2 name="trf72" order="40" direction="TOP"/>
            <cp:feeder3 name="trf73" order="30" direction="BOTTOM"/>
        </cp:position>
    </iidm:extension>
    <iidm:extension id="trf4">
        <cp:position>
            <cp:feeder1 name="trf4" order="100" direction="BOTTOM"/>
            <cp:feeder2 name="trf4" order="30" direction="TOP"/>
        </cp:position>
    </iidm:extension>
    <iidm:extension id="trf5">
        <cp:position>
            <cp:feeder1 name="trf5" order="40" direction="TOP"/>
            <cp:feeder2 name="trf5" order="10" direction="BOTTOM"/>
        </cp:position>
    </iidm:extension>
    <iidm:extension id="trf2">
        <cp:position>
            <cp:feeder1 name="trf2" order="110" direction="TOP"/>
            <cp:feeder2 name="trf2" order="70" direction="BOTTOM"/>
        </cp:position>
    </iidm:extension>
    <iidm:extension id="trf3">
        <cp:position>
            <cp:feeder1 name="trf3" order="30" direction="BOTTOM"/>
            <cp:feeder2 name="trf3" order="80" direction="BOTTOM"/>
        </cp:position>
    </iidm:extension>
    <iidm:extension id="trf1">
        <cp:position>
            <cp:feeder1 name="trf1" order="10" direction="TOP"/>
            <cp:feeder2 name="trf1" order="10" direction="TOP"/>
        </cp:position>
    </iidm:extension>
    <iidm:extension id="bbs1_2">
        <bbsp:busbarSectionPosition busbarIndex="1" sectionIndex="1"/>
    </iidm:extension>
    <iidm:extension id="bbs7">
        <bbsp:busbarSectionPosition busbarIndex="1" sectionIndex="1"/>
    </iidm:extension>
    <iidm:extension id="bbs5">
        <bbsp:busbarSectionPosition busbarIndex="1" sectionIndex="1"/>
    </iidm:extension>
    <iidm:extension id="bbs6">
        <bbsp:busbarSectionPosition busbarIndex="2" sectionIndex="1"/>
    </iidm:extension>
    <iidm:extension id="gen1">
        <cp:position>
            <cp:feeder name="gen1" order="20" direction="BOTTOM"/>
        </cp:position>
    </iidm:extension>
    <iidm:extension id="gen2">
        <cp:position>
            <cp:feeder name="gen2" order="120" direction="BOTTOM"/>
        </cp:position>
    </iidm:extension>
    <iidm:extension id="gen4">
        <cp:position>
            <cp:feeder name="gen4" order="20" direction="BOTTOM"/>
        </cp:position>
    </iidm:extension>
</iidm:network>
